Circuit: * N:\My Documents\ece317\converter\lab4\dc2dcbuck.asc

WARNING: Specified period is not longer than the sum of Trise, Tfall, and Ton for v2.  Increasing period to 3.25e-08
Direct Newton iteration for .op point succeeded.
Changing Tseed to 1.95313e-10
Changing Tseed to 1.95312e-12
Changing Tseed to 1.95312e-09
Heightened Def Con from 3.15278e-06 to 3.15491e-06
Heightened Def Con from 3.64339e-06 to 3.64339e-06
Heightened Def Con from 3.80593e-06 to 3.80593e-06
Heightened Def Con from 4.06598e-06 to 4.06598e-06
Heightened Def Con from 4.13092e-06 to 4.13092e-06
Heightened Def Con from 4.29349e-06 to 4.29349e-06
Heightened Def Con from 5.17094e-06 to 5.17094e-06
Heightened Def Con from 1.94385e-05 to 1.94385e-05
Heightened Def Con from 1.95328e-05 to 1.95349e-05
Heightened Def Con from 1.96629e-05 to 1.9665e-05
Heightened Def Con from 1.97278e-05 to 1.97299e-05
Heightened Def Con from 1.98254e-05 to 1.98275e-05
Heightened Def Con from 2.00884e-05 to 2.00884e-05
Heightened Def Con from 2.87304e-05 to 2.87325e-05
Heightened Def Con from 2.91203e-05 to 2.91224e-05
Heightened Def Con from 3.38034e-05 to 3.38034e-05
Heightened Def Con from 3.41284e-05 to 3.41284e-05
Heightened Def Con from 3.43885e-05 to 3.43885e-05
Heightened Def Con from 3.49734e-05 to 3.49734e-05
Heightened Def Con from 3.60784e-05 to 3.60784e-05
Heightened Def Con from 3.67285e-05 to 3.67285e-05
Heightened Def Con from 3.81879e-05 to 3.819e-05
Heightened Def Con from 3.96829e-05 to 3.9685e-05
Heightened Def Con from 4.00078e-05 to 4.00099e-05
Heightened Def Con from 4.12104e-05 to 4.12125e-05
Heightened Def Con from 4.16654e-05 to 4.16675e-05
Heightened Def Con from 4.26728e-05 to 4.2675e-05
Heightened Def Con from 4.50484e-05 to 4.50484e-05
Heightened Def Con from 4.65728e-05 to 4.65749e-05
Heightened Def Con from 5.06384e-05 to 5.06384e-05
Heightened Def Con from 5.2231e-05 to 5.2231e-05
Heightened Def Con from 5.27804e-05 to 5.27834e-05
Heightened Def Con from 5.31703e-05 to 5.31724e-05
Heightened Def Con from 5.35928e-05 to 5.35949e-05
Heightened Def Con from 5.4766e-05 to 5.4766e-05
Heightened Def Con from 5.49254e-05 to 5.49275e-05
Heightened Def Con from 5.82109e-05 to 5.82109e-05
Heightened Def Con from 6.05835e-05 to 6.05835e-05
Heightened Def Con from 6.28229e-05 to 6.2825e-05
Heightened Def Con from 6.31835e-05 to 6.31835e-05
Heightened Def Con from 6.46103e-05 to 6.46125e-05
Heightened Def Con from 6.6531e-05 to 6.6531e-05
Heightened Def Con from 6.77303e-05 to 6.77324e-05
Heightened Def Con from 6.78603e-05 to 6.78624e-05
Heightened Def Con from 6.85753e-05 to 6.85774e-05
Heightened Def Con from 7.15978e-05 to 7.15999e-05
Heightened Def Con from 7.21535e-05 to 7.21535e-05
Heightened Def Con from 7.35185e-05 to 7.35185e-05
Heightened Def Con from 7.56603e-05 to 7.56624e-05
Heightened Def Con from 7.80979e-05 to 7.81e-05
Heightened Def Con from 8.02753e-05 to 8.02774e-05
Heightened Def Con from 8.14158e-05 to 8.14158e-05
Heightened Def Con from 8.45003e-05 to 8.45025e-05
Heightened Def Con from 8.78509e-05 to 8.78509e-05
Heightened Def Con from 8.79778e-05 to 8.79799e-05
Heightened Def Con from 9.74353e-05 to 9.74374e-05
Heightened Def Con from 9.83809e-05 to 9.83809e-05
Heightened Def Con from 0.000100103 to 0.000100103
Heightened Def Con from 0.000100526 to 0.000100526
Heightened Def Con from 0.000103223 to 0.000103223
Heightened Def Con from 0.000103903 to 0.000103905
Heightened Def Con from 0.000104293 to 0.000104295
Heightened Def Con from 0.000105755 to 0.000105758
Heightened Def Con from 0.000106308 to 0.00010631
Heightened Def Con from 0.000107221 to 0.000107221
Heightened Def Con from 0.000107348 to 0.00010735
Heightened Def Con from 0.000112678 to 0.00011268
Heightened Def Con from 0.000114599 to 0.000114599
Heightened Def Con from 0.000117065 to 0.000117067
Heightened Def Con from 0.000117423 to 0.000117425
Heightened Def Con from 0.000122366 to 0.000122366
Heightened Def Con from 0.000124381 to 0.000124381
Heightened Def Con from 0.000126786 to 0.000126786
Heightened Def Con from 0.000128473 to 0.000128475
Heightened Def Con from 0.000130621 to 0.000130621
Heightened Def Con from 0.000133448 to 0.000133448
Heightened Def Con from 0.000133513 to 0.000133513
Heightened Def Con from 0.000133835 to 0.000133837
Heightened Def Con from 0.000134875 to 0.000134877
Heightened Def Con from 0.000136341 to 0.000136341
Heightened Def Con from 0.000137348 to 0.000137348
Heightened Def Con from 0.000138255 to 0.000138257
Heightened Def Con from 0.000140075 to 0.000140077
Heightened Def Con from 0.000143198 to 0.000143198
Heightened Def Con from 0.000144853 to 0.000144855
Heightened Def Con from 0.000145311 to 0.000145311
Heightened Def Con from 0.0001456 to 0.000145602
Heightened Def Con from 0.000155188 to 0.00015519
Heightened Def Con from 0.000157856 to 0.000157856
Heightened Def Con from 0.000159023 to 0.000159025
Heightened Def Con from 0.000159578 to 0.000159578
Heightened Def Con from 0.000161818 to 0.00016182
Heightened Def Con from 0.000163215 to 0.000163217
Heightened Def Con from 0.000169293 to 0.000169295
Heightened Def Con from 0.000169553 to 0.000169555
Heightened Def Con from 0.000170138 to 0.00017014
Heightened Def Con from 0.000172969 to 0.000172969
Heightened Def Con from 0.00017316 to 0.000173162
Heightened Def Con from 0.000173521 to 0.000173521
Heightened Def Con from 0.000173911 to 0.000173911
Heightened Def Con from 0.000174658 to 0.000174658
Heightened Def Con from 0.000175406 to 0.000175406
Heightened Def Con from 0.000175435 to 0.000175437
Heightened Def Con from 0.0001768 to 0.000176802
Heightened Def Con from 0.000179078 to 0.000179078
Heightened Def Con from 0.000181708 to 0.00018171
Heightened Def Con from 0.000182293 to 0.000182295
Heightened Def Con from 0.00018382 to 0.000183822
Heightened Def Con from 0.000184993 to 0.000184993
Heightened Def Con from 0.000187723 to 0.000187723
Heightened Def Con from 0.000190678 to 0.00019068
Heightened Def Con from 0.000192696 to 0.000192696
Heightened Def Con from 0.000192826 to 0.000192826
Heightened Def Con from 0.000193703 to 0.000193703
Heightened Def Con from 0.000194353 to 0.000194353
Heightened Def Con from 0.000195881 to 0.000195881
Heightened Def Con from 0.00019994 to 0.000199942
Heightened Def Con from 0.000200626 to 0.000200626
Heightened Def Con from 0.000204753 to 0.000204753
Heightened Def Con from 0.000206473 to 0.000206475
Heightened Def Con from 0.00020982 to 0.000209822
Heightened Def Con from 0.000213626 