Circuit: * N:\My Documents\ece317\converter\lab4\FullConverter.asc

WARNING: Node N006 is floating.

WARNING: Less than two connections to node N004.  This node is used by M2.
Direct Newton iteration failed to find .op point.  (Use ".option noopiter" to skip.)
Starting Gmin stepping
Increasing initial diagonal Gmin to 100
Increasing initial diagonal Gmin to 1000
Gmin = 1000
Gmin = 107.374
Gmin = 11.5292
Gmin = 1.23794
Gmin = 0.132923
Gmin = 0.0142725
Gmin = 0.0015325
Gmin = 0.00016455
Gmin = 1.76685e-05
Gmin = 1.89714e-06
Gmin = 2.03704e-07
Gmin = 2.18725e-08
Gmin = 2.34854e-09
Gmin = 2.52173e-10
Gmin = 2.70769e-11
Gmin = 2.90735e-12
Gmin = 3.12175e-13
Gmin = 0
Gmin stepping succeeded in finding the operating point.


Date: Wed May  6 02:36:07 2020
Total elapsed time: 170.625 seconds.

tnom = 27
temp = 27
method = modified trap
totiter = 3528722
traniter = 3527913
tranpoints = 829874
accept = 622488
rejected = 207386
matrix size = 53
fillins = 13
solver = Normal
Matrix Compiler1: 3.37 KB object code size  1.8/1.0/[0.6]
Matrix Compiler2: 4.34 KB object code size  1.4/2.0/[1.0]

