Circuit: * \\thoth.cecs.pdx.edu\Home07\nip2\My Documents\ece317\ECE317_labs\lab4\FullConverter_b.asc

WARNING: Node N006 is floating.
WARNING: Node N012 is floating.

WARNING: Less than two connections to node N004.  This node is used by M2.
WARNING: Less than two connections to node N012.  This node is used by C7.
Direct Newton iteration failed to find .op point.  (Use ".option noopiter" to skip.)
Starting Gmin stepping
Increasing initial diagonal Gmin to 100
Increasing initial diagonal Gmin to 1000
Gmin = 1000
Gmin = 107.374
Gmin = 11.5292
Gmin = 1.23794
Gmin = 0.132923
Gmin = 0.0142725
Gmin = 0.0015325
Gmin = 0.00016455
Gmin = 1.76685e-05
Gmin = 1.89714e-06
Gmin = 2.03704e-07
Gmin = 2.18725e-08
Gmin = 2.34854e-09
Gmin = 2.52173e-10
Gmin = 2.70769e-11
Gmin = 2.90735e-12
Gmin = 3.12175e-13
Gmin = 0
Gmin stepping succeeded in finding the operating point.


Date: Thu May  7 15:24:38 2020
Total elapsed time: 9.507 seconds.

tnom = 27
temp = 27
method = modified trap
totiter = 596432
traniter = 595620
tranpoints = 141490
accept = 104199
rejected = 37291
matrix size = 57
fillins = 17
solver = Normal
Matrix Compiler1: 3.99 KB object code size  1.7/1.3/[0.5]
Matrix Compiler2: 4.77 KB object code size  1.6/1.7/[0.7]

