Circuit: * N:\My Documents\ece317\converter\lab4\sawtooth.asc

Direct Newton iteration for .op point succeeded.

Date: Wed May  6 00:02:54 2020
Total elapsed time: 0.219 seconds.

tnom = 27
temp = 27
method = modified trap
totiter = 2962
traniter = 2940
tranpoints = 1242
accept = 1192
rejected = 50
matrix size = 20
fillins = 1
solver = Normal
Matrix Compiler1: 826 bytes object code size  0.6/0.4/[0.2]
Matrix Compiler2: 1.32 KB object code size  0.4/0.5/[0.4]

