Circuit: * N:\My Documents\ece317\converter\lab4\sawtooth_comp_dcad.asc

Direct Newton iteration failed to find .op point.  (Use ".option noopiter" to skip.)
Starting Gmin stepping
Increasing initial diagonal Gmin to 100
Increasing initial diagonal Gmin to 1000
Gmin = 1000
Gmin = 107.374
Gmin = 11.5292
Gmin = 1.23794
Gmin = 0.132923
Gmin = 0.0142725
Gmin = 0.0015325
Gmin = 0.00016455
Gmin = 1.76685e-05
Gmin = 1.89714e-06
Gmin = 2.03704e-07
Gmin = 2.18725e-08
Gmin = 2.34854e-09
Gmin = 2.52173e-10
Gmin = 2.70769e-11
Gmin = 2.90735e-12
Gmin = 3.12175e-13
Gmin = 0
Gmin stepping succeeded in finding the operating point.

.step r=0.1
.step r=0.2
.step r=0.3
.step r=0.4
.step r=0.5
.step r=0.6
.step r=0.7
.step r=0.8
.step r=0.9
.step r=1

Date: Wed May  6 02:10:13 2020
Total elapsed time: 3.023 seconds.

tnom = 27
temp = 27
method = modified trap
totiter = 4818
traniter = 4046
tranpoints = 1587
accept = 1444
rejected = 143
matrix size = 34
fillins = 3
solver = Normal
Matrix Compiler1: 1.51 KB object code size  0.6/0.4/[0.2]
Matrix Compiler2: 2.53 KB object code size  0.4/0.4/[0.2]

