Circuit: * N:\My Documents\ece317\converter\lab4\sawtooth_comp_dcad.asc

WARNING: Node N007 is floating.

WARNING: Less than two connections to node N007.  This node is used by C6.
Direct Newton iteration failed to find .op point.  (Use ".option noopiter" to skip.)
Starting Gmin stepping
Increasing initial diagonal Gmin to 100
Increasing initial diagonal Gmin to 1000
Gmin = 1000
Gmin = 107.374
Gmin = 11.5292
Gmin = 1.23794
Gmin = 0.132923
Gmin = 0.0142725
Gmin = 0.0015325
Gmin = 0.00016455
Gmin = 1.76685e-05
Gmin = 1.89714e-06
Gmin = 2.03704e-07
Gmin = 2.18725e-08
Gmin = 2.34854e-09
Gmin = 2.52173e-10
Gmin = 2.70769e-11
Gmin = 2.90735e-12
Gmin = 3.12175e-13
Gmin = 0
Gmin stepping succeeded in finding the operating point.


Date: Thu May  7 13:46:23 2020
Total elapsed time: 1.570 seconds.

tnom = 27
temp = 27
method = modified trap
totiter = 83727
traniter = 82962
tranpoints = 23507
accept = 17813
rejected = 5694
matrix size = 33
fillins = 2
solver = Normal
Matrix Compiler1: 1.49 KB object code size  1.2/0.6/[0.4]
Matrix Compiler2: 2.46 KB object code size  0.4/0.6/[0.3]

